/*--------------------------------*- C++ -*----------------------------------*\
| =========                 |                                                 |
| \\      /  F ield         | OpenFOAM: The Open Source CFD Toolbox           |
|  \\    /   O peration     | Version:  v2406                                 |
|   \\  /    A nd           | Website:  www.openfoam.com                      |
|    \\/     M anipulation  |                                                 |
\*---------------------------------------------------------------------------*/
FoamFile
{
    version     2.0;
    format      ascii;
    class       dictionary;
    object      blockMeshDict;
}
// * * * * * * * * * * * * * * * * * * * * * * * * * * * * * * * * * * * * * //

scale   1;

vertices
(
    (-0.03 0 -0.03)
    (30.03 0 -0.03)
    (30.03 1.1 -0.03)
    (-0.03 1.1 -0.03)
    (-0.03 0 15.03)
    (30.03 0 15.03)
    (30.03 1.1 15.03)
    (-0.03 1.1 15.03));

blocks
(
    hex (0 1 2 3 4 5 6 7) (300 10 150) simpleGrading (1 1 1)
);

edges
(
);

boundary
(
);

mergePatchPairs
(
);


// ************************************************************************* //
