/*--------------------------------*- C++ -*----------------------------------*\
| =========                 |                                                 |
| \\      /  F ield         | OpenFOAM: The Open Source CFD Toolbox           |
|  \\    /   O peration     | Version:  v2406                                 |
|   \\  /    A nd           | Website:  www.openfoam.com                      |
|    \\/     M anipulation  |                                                 |
\*---------------------------------------------------------------------------*/
FoamFile
{
    version     2.0;
    format      ascii;
    class       volScalarField;
    object      k;
}
// * * * * * * * * * * * * * * * * * * * * * * * * * * * * * * * * * * * * * //

dimensions      [0 2 -2 0 0 0 0];

internalField   uniform 0.0001;

boundaryField
{
      inlet
      {
          type fixedValue;
          value uniform 0.0185;
      }

      effluent
      {
          type fixedValue;
          value uniform 0.0003;
      }

      outlet
      {
          type zeroGradient;
      }

      freesurface
      {
          type zeroGradient;
      }

      diffuser
      {
          type kqRWallFunction;
          value           $internalField;
      }

      bottom
      {
          type kqRWallFunction;
          value           $internalField;
      }
}


// ************************************************************************* //
